/*--------------------------------*- C++ -*----------------------------------*\
|                                                                             |
|    HiSA: High Speed Aerodynamic solver                                      |
|                                                                             |
|    Copyright (C) 2014-2017 Johan Heyns - CSIR, South Africa                 |
|    Copyright (C) 2014-2017 Oliver Oxtoby - CSIR, South Africa               |
|                                                                             |
\*---------------------------------------------------------------------------*/
FoamFile
{
    version     2.0;
    format      ascii;
    class       volScalarField;
    object      p;
}
// * * * * * * * * * * * * * * * * * * * * * * * * * * * * * * * * * * * * * //

dimensions      [1 -1 -2 0 0 0 0];

internalField   uniform 0;

boundaryField
{
    side1
    {
        type            zeroGradient;
//         type            fixedValue;
//         value           uniform 100000;
    }
    
    side2
    {
        type            zeroGradient;
//         type            fixedValue;
//         value           uniform 10000;
    }
    
    wall
    {
        type            zeroGradient;
    }

    empty
    {
        type            empty;
    }
}

// ************************************************************************* //
