/*--------------------------------*- C++ -*----------------------------------*\
| =========                 |                                                 |
| \\      /  F ield         | OpenFOAM: The Open Source CFD Toolbox           |
|  \\    /   O peration     | Version:  v2306                                 |
|   \\  /    A nd           | Website:  www.openfoam.com                      |
|    \\/     M anipulation  |                                                 |
\*---------------------------------------------------------------------------*/
FoamFile
{
    version     2.0;
    format      ascii;
    class       dictionary;
    object      fvSchemes;
}
// * * * * * * * * * * * * * * * * * * * * * * * * * * * * * * * * * * * * * //

fluxScheme	   AUSMPWplus; // Options: LDFSS, AUSMPWplus, Kurganov, Tadmor

inviscid	   true;

e0                 0;   // Enthalpy at 0 Kelvin. This value is required when using JANAF table e0 at 0 K is not 0.

ddtSchemes
{
    default         Euler;
}

gradSchemes
{
    default         Gauss linear;
}

divSchemes
{
    default         none;

    div(tauMC)      Gauss linear;
}

laplacianSchemes
{
    default         Gauss linear corrected;
}

interpolationSchemes
{
    default         linear;

    limitedCubic    cellLimited<cubic> 1.5 Gauss linear 1;
    reconstruct(p)  vanLeer  limitedCubic;
    reconstruct(U)  vanLeerV limitedCubic;
    reconstruct(T)  vanLeer  limitedCubic;
}

snGradSchemes
{
    default         corrected;
}


// ************************************************************************* //
